LTspice 24.0.12 for Windows
Circuit: * F:\Weber\Classes\ECE2260\Lab_7\Draft6.asc
Start Time: Thu Feb 27 13:59:40 2025
solver = Normal
Maximum thread count: 16
tnom = 27
temp = 27
method = modified trap
.OP point found by inspection.
Total elapsed time: 0.109 seconds.

