LTspice 24.0.12 for Windows
Circuit: * F:\Weber\Classes\ECE2260\Lab_7\LTspice_Circuits\Draft1.asc
Start Time: Mon Mar 24 20:21:14 2025
solver = Normal
Maximum thread count: 16
tnom = 27
temp = 27
method = modified trap
.OP point found by inspection.
Total elapsed time: 0.054 seconds.

