LTspice 24.0.12 for Windows
Circuit: * F:\Weber\Classes\ECE2260\Lab_7\LTspice_Circuits\RLC_Series_Circuit.asc
Start Time: Wed Mar 12 17:46:06 2025
solver = Normal
Maximum thread count: 16
tnom = 27
temp = 27
method = modified trap
.OP point found by inspection.
Total elapsed time: 0.046 seconds.

